@<TRIPOS>MOLECULE
CHL1
74   77    1
SMALL
USER_CHARGES


@<TRIPOS>ATOM
      1 C3          7.3540   -0.1020   -0.7500 C.3       1 CHL         0.0000 
      2 H3          7.2070    0.2990   -1.7770 H         1 CHL         0.0000 
      3 O3          8.7560   -0.1960   -0.5240 O.3       1 CHL         0.0000 
      4 H3'         9.0970    0.6980   -0.6080 H         1 CHL         0.0000 
      5 C4          6.7080    0.8650    0.2690 C.3       1 CHL         0.0000 
      6 H4A         6.9700    0.5250    1.2940 H         1 CHL         0.0000 
      7 H4B         7.1870    1.8640    0.1400 H         1 CHL         0.0000 
      8 C5          5.2010    0.9440    0.1180 C.2       1 CHL         0.0000 
      9 C6          4.5730    2.1150   -0.0840 C.2       1 CHL         0.0000 
     10 H6          5.1540    3.0480   -0.1140 H         1 CHL         0.0000 
     11 C7          3.0830    2.2610   -0.1940 C.3       1 CHL         0.0000 
     12 H7A         2.7350    3.1210    0.4190 H         1 CHL         0.0000 
     13 H7B         2.8180    2.4770   -1.2520 H         1 CHL         0.0000 
     14 C8          2.3190    0.9880    0.2590 C.3       1 CHL         0.0000 
     15 H8          2.3510    0.9590    1.3710 H         1 CHL         0.0000 
     16 C14         0.8700    1.0490   -0.2070 C.3       1 CHL         0.0000 
     17 H14         0.9100    1.0560   -1.3280 H         1 CHL         0.0000 
     18 C15         0.0510    2.2950    0.1640 C.3       1 CHL         0.0000 
     19 H15A        0.2070    2.5470    1.2350 H         1 CHL         0.0000 
     20 H15B        0.3200    3.1720   -0.4590 H         1 CHL         0.0000 
     21 C16        -1.4010    1.8520   -0.0640 C.3       1 CHL         0.0000 
     22 H16A       -1.9900    2.0750    0.8510 H         1 CHL         0.0000 
     23 H16B       -1.8540    2.3860   -0.9240 H         1 CHL         0.0000 
     24 C17        -1.3730    0.3130   -0.3430 C.3       1 CHL         0.0000 
     25 H17        -1.3410    0.2000   -1.4540 H         1 CHL         0.0000 
     26 C13         0.0090   -0.1570    0.1740 C.3       1 CHL         0.0000 
     27 C18        -0.0700   -0.3050    1.7200 C.3       1 CHL         0.0000 
     28 H18A       -0.5390    0.5790    2.1970 H         1 CHL         0.0000 
     29 H18B       -0.6700   -1.1990    1.9910 H         1 CHL         0.0000 
     30 H18C        0.9330   -0.4390    2.1700 H         1 CHL         0.0000 
     31 C12         0.6470   -1.3910   -0.5040 C.3       1 CHL         0.0000 
     32 H12A        0.1110   -2.3250   -0.2500 H         1 CHL         0.0000 
     33 H12B        0.6050   -1.2600   -1.6080 H         1 CHL         0.0000 
     34 C11         2.1200   -1.5580   -0.0830 C.3       1 CHL         0.0000 
     35 H11A        2.1220   -1.8510    0.9860 H         1 CHL         0.0000 
     36 H11B        2.5520   -2.4010   -0.6620 H         1 CHL         0.0000 
     37 C9          2.9820   -0.2770   -0.2990 C.3       1 CHL         0.0000 
     38 H9          2.9930   -0.1290   -1.4090 H         1 CHL         0.0000 
     39 C10         4.4700   -0.4160    0.1320 C.3       1 CHL         0.0000 
     40 C19         4.5310   -0.9610    1.5860 C.3       1 CHL         0.0000 
     41 H19A        4.1340   -1.9950    1.6350 H         1 CHL         0.0000 
     42 H19B        5.5720   -1.0100    1.9650 H         1 CHL         0.0000 
     43 H19C        3.9420   -0.3250    2.2790 H         1 CHL         0.0000 
     44 C1          5.1870   -1.3940   -0.8490 C.3       1 CHL         0.0000 
     45 H1A         4.7560   -2.4120   -0.7390 H         1 CHL         0.0000 
     46 H1B         4.9940   -1.0600   -1.8930 H         1 CHL         0.0000 
     47 C2          6.7080   -1.4950   -0.6630 C.3       1 CHL         0.0000 
     48 H2A         7.1310   -2.1580   -1.4490 H         1 CHL         0.0000 
     49 H2B         6.9300   -1.9500    0.3260 H         1 CHL         0.0000 
     50 C20        -2.6530   -0.3950    0.1430 C.3       1 CHL         0.0000 
     51 H20        -2.7320   -0.2790    1.2480 H         1 CHL         0.0000 
     52 C21        -2.5980   -1.9080   -0.1690 C.3       1 CHL         0.0000 
     53 H21A       -1.8190   -2.4060    0.4400 H         1 CHL         0.0000 
     54 H21B       -2.3880   -2.0760   -1.2460 H         1 CHL         0.0000 
     55 H21C       -3.5570   -2.4020    0.0840 H         1 CHL         0.0000 
     56 C22        -3.9330    0.2510   -0.4620 C.3       1 CHL         0.0000 
     57 H22A       -3.9300    1.3440   -0.2620 H         1 CHL         0.0000 
     58 H22B       -3.9260    0.1080   -1.5640 H         1 CHL         0.0000 
     59 C23        -5.2590   -0.2880    0.1070 C.3       1 CHL         0.0000 
     60 H23A       -5.3740   -1.3560   -0.1710 H         1 CHL         0.0000 
     61 H23B       -5.2260   -0.2170    1.2170 H         1 CHL         0.0000 
     62 C24        -6.4830    0.4930   -0.4010 C.3       1 CHL         0.0000 
     63 H24A       -6.3260    1.5710   -0.1700 H         1 CHL         0.0000 
     64 H24B       -6.5510    0.3890   -1.5050 H         1 CHL         0.0000 
     65 C25        -7.8270    0.0580    0.2320 C.3       1 CHL         0.0000 
     66 H25        -7.7160    0.1360    1.3380 H         1 CHL         0.0000 
     67 C26        -8.9650    1.0130   -0.1800 C.3       1 CHL         0.0000 
     68 H26A       -9.9120    0.7230    0.3210 H         1 CHL         0.0000 
     69 H26B       -8.7170    2.0560    0.1110 H         1 CHL         0.0000 
     70 H26C       -9.1190    0.9780   -1.2790 H         1 CHL         0.0000 
     71 C27        -8.1920   -1.4040   -0.0950 C.3       1 CHL         0.0000 
     72 H27A       -9.1660   -1.6680    0.3670 H         1 CHL         0.0000 
     73 H27B       -8.2730   -1.5450   -1.1940 H         1 CHL         0.0000 
     74 H27C       -7.4230   -2.1010    0.2980 H         1 CHL         0.0000 
@<TRIPOS>BOND
     1    1    2 1    
     2    1    3 1    
     3    1    5 1    
     4    1   47 1    
     5    3    4 1    
     6    5    6 1    
     7    5    7 1    
     8    5    8 1    
     9    8    9 2    
    10    8   39 1    
    11    9   10 1    
    12    9   11 1    
    13   11   12 1    
    14   11   13 1    
    15   11   14 1    
    16   14   15 1    
    17   14   16 1    
    18   14   37 1    
    19   16   17 1    
    20   16   18 1    
    21   16   26 1    
    22   18   19 1    
    23   18   20 1    
    24   18   21 1    
    25   21   22 1    
    26   21   23 1    
    27   21   24 1    
    28   24   25 1    
    29   24   26 1    
    30   24   50 1    
    31   26   27 1    
    32   26   31 1    
    33   27   28 1    
    34   27   29 1    
    35   27   30 1    
    36   31   32 1    
    37   31   33 1    
    38   31   34 1    
    39   34   35 1    
    40   34   36 1    
    41   34   37 1    
    42   37   38 1    
    43   37   39 1    
    44   39   40 1    
    45   39   44 1    
    46   40   41 1    
    47   40   42 1    
    48   40   43 1    
    49   44   45 1    
    50   44   46 1    
    51   44   47 1    
    52   47   48 1    
    53   47   49 1    
    54   50   51 1    
    55   50   52 1    
    56   50   56 1    
    57   52   53 1    
    58   52   54 1    
    59   52   55 1    
    60   56   57 1    
    61   56   58 1    
    62   56   59 1    
    63   59   60 1    
    64   59   61 1    
    65   59   62 1    
    66   62   63 1    
    67   62   64 1    
    68   62   65 1    
    69   65   66 1    
    70   65   67 1    
    71   65   71 1    
    72   67   68 1    
    73   67   69 1    
    74   67   70 1    
    75   71   72 1    
    76   71   73 1    
    77   71   74 1    
@<TRIPOS>SUBSTRUCTURE
     1 CHL         1 GROUP             0       ****    0 ROOT    
