@<TRIPOS>MOLECULE
CHL1
74   77    1
SMALL
USER_CHARGES


@<TRIPOS>ATOM
      1 C3         -0.3587   -0.2034   -1.3712 C.3       1 CHL         0.0000 
      2 H3         -0.1747   -1.2424   -1.6463 H         1 CHL         0.0000
      3 O3         -0.0373   -0.0308   -0.0077 O.3       1 CHL         0.0000
      4 H3'        -0.0963    0.8822    0.2119 H         1 CHL         0.0000
      5 C4          0.5469    0.6862   -2.2207 C.3       1 CHL         0.0000 
      6 H4A         0.5036    1.7209   -1.8787 H         1 CHL         0.0000 
      7 H4B         1.5878    0.3815   -2.1001 H         1 CHL         0.0000 
      8 C5          0.1398    0.5917   -3.6905 C.2       1 CHL         0.0000 
      9 C6          1.0184    0.1455   -4.6097 C.2       1 CHL         0.0000 
     10 H6          2.0315   -0.0928   -4.3215 H         1 CHL         0.0000 
     11 C7          0.6859   -0.0438   -6.0708 C.3       1 CHL         0.0000 
     12 H7A         1.5727    0.1858   -6.6657 H         1 CHL         0.0000 
     13 H7B         0.4383   -1.0974   -6.2272 H         1 CHL         0.0000 
     14 C8         -0.4933    0.8379   -6.4847 C.3       1 CHL         0.0000 
     15 H8         -0.1575    1.8730   -6.4219 H         1 CHL         0.0000 
     16 C14        -0.9122    0.5061   -7.9283 C.3       1 CHL         0.0000 
     17 H14        -1.2361   -0.5364   -7.9073 H         1 CHL         0.0000 
     18 C15         0.1554    0.5686   -9.0186 C.3       1 CHL         0.0000 
     19 H15A        0.7752    1.4611   -8.9153 H         1 CHL         0.0000 
     20 H15B        0.8171   -0.3003   -8.9927 H         1 CHL         0.0000 
     21 C16        -0.6647    0.6228  -10.3153 C.3       1 CHL         0.0000 
     22 H16A       -0.3548    1.4847  -10.9079 H         1 CHL         0.0000 
     23 H16B       -0.4882   -0.2664  -10.9215 H         1 CHL         0.0000 
     24 C17        -2.1592    0.7351   -9.9061 C.3       1 CHL         0.0000 
     25 H17        -2.5281   -0.2867   -9.8088 H         1 CHL         0.0000 
     26 C13        -2.0883    1.3326   -8.4713 C.3       1 CHL         0.0000 
     27 C18        -1.7938    2.8565   -8.5238 C.3       1 CHL         0.0000 
     28 H18A       -2.6590    3.4132   -8.8829 H         1 CHL         0.0000 
     29 H18B       -1.5331    3.2729   -7.5530 H         1 CHL         0.0000 
     30 H18C       -0.9652    3.0962   -9.1882 H         1 CHL         0.0000 
     31 C12        -3.2856    1.0330   -7.5373 C.3       1 CHL         0.0000 
     32 H12A       -4.1588    1.6177   -7.8211 H         1 CHL         0.0000 
     33 H12B       -3.5824   -0.0120   -7.6297 H         1 CHL         0.0000 
     34 C11        -2.9645    1.3371   -6.0534 C.3       1 CHL         0.0000 
     35 H11A       -2.8657    2.4157   -5.9635 H         1 CHL         0.0000 
     36 H11B       -3.8259    1.0741   -5.4388 H         1 CHL         0.0000 
     37 C9         -1.6918    0.6169   -5.5176 C.3       1 CHL         0.0000 
     38 H9         -1.9152   -0.4488   -5.5816 H         1 CHL         0.0000 
     39 C10        -1.3341    0.9266   -4.0070 C.3       1 CHL         0.0000 
     40 C19        -1.5860    2.4238   -3.6988 C.3       1 CHL         0.0000 
     41 H19A       -1.2588    2.7149   -2.7034 H         1 CHL         0.0000 
     42 H19B       -1.0729    3.0645   -4.4139 H         1 CHL         0.0000 
     43 H19C       -2.6473    2.6675   -3.7390 H         1 CHL         0.0000 
     44 C1         -2.2264    0.0527   -3.0823 C.3       1 CHL         0.0000 
     45 H1A        -3.2800    0.3033   -3.2087 H         1 CHL         0.0000 
     46 H1B        -2.1361   -0.9862   -3.3914 H         1 CHL         0.0000 
     47 C2         -1.8438    0.1206   -1.5934 C.3       1 CHL         0.0000 
     48 H2A        -2.4568   -0.5848   -1.0314 H         1 CHL         0.0000 
     49 H2B        -2.0839    1.1077   -1.2072 H         1 CHL         0.0000 
     50 C20        -3.0465    1.4247  -10.9830 C.3       1 CHL         0.0000 
     51 H20        -2.6772    2.4387  -11.1387 H         1 CHL         0.0000 
     52 C21        -4.5200    1.5116  -10.5442 C.3       1 CHL         0.0000 
     53 H21A       -4.6662    2.3089   -9.8197 H         1 CHL         0.0000 
     54 H21B       -4.8550    0.5761  -10.0967 H         1 CHL         0.0000 
     55 H21C       -5.1942    1.7301  -11.3691 H         1 CHL         0.0000 
     56 C22        -2.9385    0.6771  -12.3345 C.3       1 CHL         0.0000 
     57 H22A       -1.8963    0.4555  -12.5554 H         1 CHL         0.0000 
     58 H22B       -3.4356   -0.2906  -12.2682 H         1 CHL         0.0000 
     59 C23        -3.4638    1.4567  -13.5511 C.3       1 CHL         0.0000 
     60 H23A       -4.5297    1.6633  -13.4609 H         1 CHL         0.0000 
     61 H23B       -2.9631    2.4236  -13.5831 H         1 CHL         0.0000 
     62 C24        -3.2182    0.6879  -14.8627 C.3       1 CHL         0.0000 
     63 H24A       -2.1775    0.3631  -14.9116 H         1 CHL         0.0000 
     64 H24B       -3.8141   -0.2265  -14.8377 H         1 CHL         0.0000 
     65 C25        -3.5566    1.4774  -16.1431 C.3       1 CHL         0.0000 
     66 H25        -4.5847    1.8351  -16.0661 H         1 CHL         0.0000 
     67 C26        -2.6398    2.6980  -16.3285 C.3       1 CHL         0.0000 
     68 H26A       -2.8101    3.1751  -17.2932 H         1 CHL         0.0000 
     69 H26B       -2.8214    3.4571  -15.5678 H         1 CHL         0.0000 
     70 H26C       -1.5869    2.4167  -16.2778 H         1 CHL         0.0000 
     71 C27        -3.4756    0.5603  -17.3732 C.3       1 CHL         0.0000 
     72 H27A       -2.4672    0.1674  -17.5061 H         1 CHL         0.0000 
     73 H27B       -4.1562   -0.2872  -17.2822 H         1 CHL         0.0000 
     74 H27C       -3.7420    1.0972  -18.2837 H         1 CHL         0.0000 
@<TRIPOS>BOND
     1    1    3 1    
     2    1    2 1    
     3    1    5 1    
     4    1   47 1    
     5    3    4 1    
     6    5    6 1    
     7    5    7 1    
     8    5    8 1    
     9    8    9 2    
    10    8   39 1    
    11    9   10 1    
    12    9   11 1    
    13   11   12 1    
    14   11   13 1    
    15   11   14 1    
    16   14   15 1    
    17   14   16 1    
    18   14   37 1    
    19   16   17 1    
    20   16   18 1    
    21   16   26 1    
    22   18   19 1    
    23   18   20 1    
    24   18   21 1    
    25   21   22 1    
    26   21   23 1    
    27   21   24 1    
    28   24   25 1    
    29   24   26 1    
    30   24   50 1    
    31   26   27 1    
    32   26   31 1    
    33   27   28 1    
    34   27   29 1    
    35   27   30 1    
    36   31   32 1    
    37   31   33 1    
    38   31   34 1    
    39   34   35 1    
    40   34   36 1    
    41   34   37 1    
    42   37   38 1    
    43   37   39 1    
    44   39   40 1    
    45   39   44 1    
    46   40   41 1    
    47   40   42 1    
    48   40   43 1    
    49   44   45 1    
    50   44   46 1    
    51   44   47 1    
    52   47   48 1    
    53   47   49 1    
    54   50   51 1    
    55   50   52 1    
    56   50   56 1    
    57   52   53 1    
    58   52   54 1    
    59   52   55 1    
    60   56   57 1    
    61   56   58 1    
    62   56   59 1    
    63   59   60 1    
    64   59   61 1    
    65   59   62 1    
    66   62   63 1    
    67   62   64 1    
    68   62   65 1    
    69   65   66 1    
    70   65   67 1    
    71   65   71 1    
    72   67   68 1    
    73   67   69 1    
    74   67   70 1    
    75   71   72 1    
    76   71   73 1    
    77   71   74 1    
@<TRIPOS>SUBSTRUCTURE
     1 CHL         1 GROUP             0       ****    0 ROOT    
